data_image0
_cell_length_a       3.58328
_cell_length_b       3.60134
_cell_length_c       3.57258
_cell_angle_alpha    89.5044
_cell_angle_beta     90.288
_cell_angle_gamma    89.2403

loop_
  _atom_site_label
  _atom_site_occupancy
  _atom_site_fract_x
  _atom_site_fract_y
  _atom_site_fract_z
  _atom_site_thermal_displace_type
  _atom_site_B_iso_or_equiv
  _atom_site_type_symbol
  Fe1      1.0000 -0.01683  0.02582  -0.02595  Biso   1.000  Fe
  Fe2      1.0000 0.51383  0.48406  0.00816  Biso   1.000  Fe
  Fe3      1.0000 -0.02134  0.50295  0.49299  Biso   1.000  Fe
  Fe4      1.0000 0.49336  -0.01263  0.49884  Biso   1.000  Fe
