data_image0
_cell_length_a       3.57187
_cell_length_b       3.59351
_cell_length_c       3.58404
_cell_angle_alpha    89.7098
_cell_angle_beta     89.9434
_cell_angle_gamma    90.1462

loop_
  _atom_site_label
  _atom_site_occupancy
  _atom_site_fract_x
  _atom_site_fract_y
  _atom_site_fract_z
  _atom_site_thermal_displace_type
  _atom_site_B_iso_or_equiv
  _atom_site_type_symbol
  Fe1      1.0000 0.00014  0.01413  0.02536  Biso   1.000  Fe
  Fe2      1.0000 0.49700  0.51186  -0.01501  Biso   1.000  Fe
  Fe3      1.0000 -0.00338  0.51751  0.49257  Biso   1.000  Fe
  Fe4      1.0000 0.48672  -0.01676  0.50827  Biso   1.000  Fe
