data_image0
_cell_length_a       3.57355
_cell_length_b       3.61292
_cell_length_c       3.60456
_cell_angle_alpha    90.0073
_cell_angle_beta     89.9031
_cell_angle_gamma    89.4823

loop_
  _atom_site_label
  _atom_site_occupancy
  _atom_site_fract_x
  _atom_site_fract_y
  _atom_site_fract_z
  _atom_site_thermal_displace_type
  _atom_site_B_iso_or_equiv
  _atom_site_type_symbol
  Fe1      1.0000 -0.00293  0.00180  -0.02118  Biso   1.000  Fe
  Fe2      1.0000 0.50645  0.51361  -0.00330  Biso   1.000  Fe
  Fe3      1.0000 -0.02058  0.50356  0.47333  Biso   1.000  Fe
  Fe4      1.0000 0.51329  0.01466  0.48619  Biso   1.000  Fe
