data_image0
_cell_length_a       3.58159
_cell_length_b       3.58718
_cell_length_c       3.57288
_cell_angle_alpha    90.6396
_cell_angle_beta     89.9353
_cell_angle_gamma    90.4114

loop_
  _atom_site_label
  _atom_site_occupancy
  _atom_site_fract_x
  _atom_site_fract_y
  _atom_site_fract_z
  _atom_site_thermal_displace_type
  _atom_site_B_iso_or_equiv
  _atom_site_type_symbol
  Fe1      1.0000 -0.02749  0.01354  0.02513  Biso   1.000  Fe
  Fe2      1.0000 0.47876  0.50512  -0.01395  Biso   1.000  Fe
  Fe3      1.0000 0.00017  0.51964  0.48076  Biso   1.000  Fe
  Fe4      1.0000 0.47315  -0.00473  0.51819  Biso   1.000  Fe
