data_image0
_cell_length_a       5.80455
_cell_length_b       2.90395
_cell_length_c       2.90261
_cell_angle_alpha    89.5887
_cell_angle_beta     89.8851
_cell_angle_gamma    89.4711

loop_
  _atom_site_label
  _atom_site_occupancy
  _atom_site_fract_x
  _atom_site_fract_y
  _atom_site_fract_z
  _atom_site_thermal_displace_type
  _atom_site_B_iso_or_equiv
  _atom_site_type_symbol
  Fe1      1.0000 -0.00615  -0.00351  0.02242  Biso   1.000  Fe
  Fe2      1.0000 0.23870  0.47420  0.51004  Biso   1.000  Fe
  Fe3      1.0000 0.50441  -0.00021  -0.01295  Biso   1.000  Fe
  Fe4      1.0000 0.75035  0.46360  0.48438  Biso   1.000  Fe
