data_image0
_cell_length_a       3.58098
_cell_length_b       3.60173
_cell_length_c       3.60869
_cell_angle_alpha    90.1624
_cell_angle_beta     90.459
_cell_angle_gamma    89.8928

loop_
  _atom_site_label
  _atom_site_occupancy
  _atom_site_fract_x
  _atom_site_fract_y
  _atom_site_fract_z
  _atom_site_thermal_displace_type
  _atom_site_B_iso_or_equiv
  _atom_site_type_symbol
  Fe1      1.0000 0.02120  -0.01185  0.00306  Biso   1.000  Fe
  Fe2      1.0000 0.48043  0.52314  0.01464  Biso   1.000  Fe
  Fe3      1.0000 -0.01566  0.50552  0.48571  Biso   1.000  Fe
  Fe4      1.0000 0.48941  0.01485  0.49858  Biso   1.000  Fe
