data_image0
_cell_length_a       5.9762
_cell_length_b       10.342
_cell_length_c       6.013
_cell_angle_alpha    90
_cell_angle_beta     108.87
_cell_angle_gamma    90

loop_
  _atom_site_label
  _atom_site_occupancy
  _atom_site_fract_x
  _atom_site_fract_y
  _atom_site_fract_z
  _atom_site_thermal_displace_type
  _atom_site_B_iso_or_equiv
  _atom_site_type_symbol
  X1       1.0000 0.18616  0.52710  0.78949  Biso   1.000  X
  X2       1.0000 0.34704  0.13534  0.08237  Biso   1.000  X
  X3       1.0000 0.17827  0.63494  0.99133  Biso   1.000  X
  X4       1.0000 0.15388  0.02977  0.94822  Biso   1.000  X
  X5       1.0000 0.13530  0.63617  0.71785  Biso   1.000  X
  X6       1.0000 0.17350  0.01146  0.47045  Biso   1.000  X
  X7       1.0000 0.67445  0.95207  0.00169  Biso   1.000  X
  X8       1.0000 0.35394  0.62760  0.16517  Biso   1.000  X
  X9       1.0000 0.39475  0.33330  0.37308  Biso   1.000  X
  X10      1.0000 0.74376  0.27978  0.50841  Biso   1.000  X
  X11      1.0000 0.00780  0.02806  0.16517  Biso   1.000  X
  X12      1.0000 0.72173  0.58994  0.14001  Biso   1.000  X
  X13      1.0000 0.75002  0.46799  0.50120  Biso   1.000  X
  X14      1.0000 0.23739  0.97497  0.61509  Biso   1.000  X
  X15      1.0000 0.40012  0.44748  0.80221  Biso   1.000  X
  X16      1.0000 0.67815  0.76357  0.59336  Biso   1.000  X
  X17      1.0000 0.27443  0.05460  0.04572  Biso   1.000  X
  X18      1.0000 0.29630  0.96608  0.33214  Biso   1.000  X
  X19      1.0000 0.52118  0.75722  0.09477  Biso   1.000  X
  X20      1.0000 0.37105  0.54196  0.83244  Biso   1.000  X
  X21      1.0000 0.92785  0.47262  0.85526  Biso   1.000  X
  X22      1.0000 0.63942  0.86783  0.75229  Biso   1.000  X
  X23      1.0000 0.38431  0.35066  0.70912  Biso   1.000  X
  X24      1.0000 0.33003  0.25287  0.63179  Biso   1.000  X
  X25      1.0000 0.42323  0.32509  0.00970  Biso   1.000  X
  X26      1.0000 0.10264  0.87285  0.29183  Biso   1.000  X
  X27      1.0000 0.33140  0.94051  0.04758  Biso   1.000  X
  X28      1.0000 0.62513  0.03696  0.04612  Biso   1.000  X
  X29      1.0000 0.93640  0.47811  0.00648  Biso   1.000  X
  X30      1.0000 0.91354  0.49922  0.40211  Biso   1.000  X
  X31      1.0000 0.68827  0.81629  0.90374  Biso   1.000  X
  X32      1.0000 0.07305  0.09867  0.62318  Biso   1.000  X
  X33      1.0000 0.60052  0.02436  0.83369  Biso   1.000  X
  X34      1.0000 0.00654  0.47020  0.64314  Biso   1.000  X
  X35      1.0000 0.07648  0.86322  0.43077  Biso   1.000  X
  X36      1.0000 0.30529  0.85510  0.58276  Biso   1.000  X
  X37      1.0000 0.59589  0.09156  0.13336  Biso   1.000  X
  X38      1.0000 0.55208  0.05621  0.48783  Biso   1.000  X
  X39      1.0000 0.69311  0.96647  0.67944  Biso   1.000  X
  X40      1.0000 0.44955  0.02927  0.48530  Biso   1.000  X
  X41      1.0000 0.08140  0.49696  0.14307  Biso   1.000  X
  X42      1.0000 0.54606  0.09916  0.80843  Biso   1.000  X
  X43      1.0000 0.89110  0.61326  0.92772  Biso   1.000  X
  X44      1.0000 0.60595  0.83288  0.22757  Biso   1.000  X
  X45      1.0000 0.45442  0.31850  0.21538  Biso   1.000  X
  X46      1.0000 0.80013  0.77933  0.00230  Biso   1.000  X
  X47      1.0000 0.71484  0.52413  0.83404  Biso   1.000  X
  X48      1.0000 0.56614  0.90515  0.47734  Biso   1.000  X
  X49      1.0000 0.99676  0.84467  0.28114  Biso   1.000  X
  X50      1.0000 0.80510  0.25597  0.98817  Biso   1.000  X
  X51      1.0000 0.86658  0.16231  0.36434  Biso   1.000  X
  X52      1.0000 0.89044  0.14020  0.19568  Biso   1.000  X
  X53      1.0000 0.88182  0.34034  0.60158  Biso   1.000  X
  X54      1.0000 0.53315  0.43340  0.66721  Biso   1.000  X
  X55      1.0000 0.45832  0.79465  0.57952  Biso   1.000  X
  X56      1.0000 0.90294  0.48901  0.17758  Biso   1.000  X
  X57      1.0000 0.77751  0.73294  0.11263  Biso   1.000  X
  X58      1.0000 0.83067  0.76954  0.54020  Biso   1.000  X
  X59      1.0000 0.07819  0.75226  0.72974  Biso   1.000  X
  X60      1.0000 0.46500  0.81265  0.91704  Biso   1.000  X
  X61      1.0000 0.79133  0.66242  0.53317  Biso   1.000  X
  X62      1.0000 0.22459  0.81296  0.09113  Biso   1.000  X
  X63      1.0000 0.31609  0.58528  0.53850  Biso   1.000  X
  X64      1.0000 0.08580  0.31276  0.38295  Biso   1.000  X
  X65      1.0000 0.88751  0.40740  0.59979  Biso   1.000  X
  X66      1.0000 0.74576  0.29605  0.59279  Biso   1.000  X
  X67      1.0000 0.64588  0.97022  0.45761  Biso   1.000  X
  X68      1.0000 0.20854  0.38852  0.66179  Biso   1.000  X
  X69      1.0000 0.63652  0.53902  0.42586  Biso   1.000  X
  X70      1.0000 0.78136  0.76934  0.24133  Biso   1.000  X
  X71      1.0000 0.14956  0.13983  0.07532  Biso   1.000  X
  X72      1.0000 0.91999  0.07852  0.49780  Biso   1.000  X
  X73      1.0000 0.39830  0.65083  0.46160  Biso   1.000  X
  X74      1.0000 0.59742  0.57033  0.53686  Biso   1.000  X
  X75      1.0000 0.10152  0.85198  0.03192  Biso   1.000  X
  X76      1.0000 0.74849  0.04275  0.64857  Biso   1.000  X
  X77      1.0000 0.94350  0.50069  0.41312  Biso   1.000  X
  X78      1.0000 0.72669  0.21630  0.96805  Biso   1.000  X
  X79      1.0000 0.99474  0.52596  0.98716  Biso   1.000  X
  X80      1.0000 0.62261  0.86302  0.36448  Biso   1.000  X
  X81      1.0000 0.66020  0.79028  0.55282  Biso   1.000  X
  X82      1.0000 0.19479  0.92958  0.84719  Biso   1.000  X
  X83      1.0000 0.25567  0.67739  0.60688  Biso   1.000  X
  X84      1.0000 0.80967  0.17227  0.95662  Biso   1.000  X
  X85      1.0000 0.60426  0.94623  0.70652  Biso   1.000  X
  X86      1.0000 0.49363  0.52200  0.01350  Biso   1.000  X
  X87      1.0000 0.45642  0.27375  0.89618  Biso   1.000  X
  X88      1.0000 0.70952  0.94055  0.17175  Biso   1.000  X
  X89      1.0000 0.14362  0.42771  0.91829  Biso   1.000  X
  X90      1.0000 0.54917  0.30398  0.58539  Biso   1.000  X
  X91      1.0000 0.74513  0.75740  0.31871  Biso   1.000  X
  X92      1.0000 0.79637  0.51808  0.93045  Biso   1.000  X
  X93      1.0000 0.06725  0.03861  0.19308  Biso   1.000  X
  X94      1.0000 0.49903  0.10201  0.57616  Biso   1.000  X
  X95      1.0000 0.72285  0.30012  0.38001  Biso   1.000  X
  X96      1.0000 0.55214  0.00810  0.99631  Biso   1.000  X
  X97      1.0000 0.25082  0.41941  0.80041  Biso   1.000  X
  X98      1.0000 0.20031  0.26255  0.32508  Biso   1.000  X
  X99      1.0000 0.12570  0.87976  0.35934  Biso   1.000  X
  X100     1.0000 0.01860  0.28900  0.28969  Biso   1.000  X
