data_image0
_cell_length_a       5.63651
_cell_length_b       5.58361
_cell_length_c       7.82321
_cell_angle_alpha    90
_cell_angle_beta     89.815
_cell_angle_gamma    90

loop_
  _atom_site_label
  _atom_site_occupancy
  _atom_site_fract_x
  _atom_site_fract_y
  _atom_site_fract_z
  _atom_site_thermal_displace_type
  _atom_site_B_iso_or_equiv
  _atom_site_type_symbol
  X1       1.0000 -0.00000  0.00000  0.10000  Biso   1.000  X
  X2       1.0000 -0.00000  0.00000  0.20000  Biso   1.000  X
  X3       1.0000 -0.00000  0.00000  0.40000  Biso   1.000  X
  X4       1.0000 0.00000  0.10000  0.00000  Biso   1.000  X
  X5       1.0000 -0.00000  0.10000  0.10000  Biso   1.000  X
  X6       1.0000 -0.00000  0.10000  0.20000  Biso   1.000  X
  X7       1.0000 0.00000  0.10000  0.30000  Biso   1.000  X
  X8       1.0000 -0.00000  0.10000  0.40000  Biso   1.000  X
  X9       1.0000 0.00000  0.10000  0.50000  Biso   1.000  X
  X10      1.0000 0.00000  0.10000  0.60000  Biso   1.000  X
  X11      1.0000 -0.00000  0.10000  0.70000  Biso   1.000  X
  X12      1.0000 -0.00000  0.10000  0.80000  Biso   1.000  X
  X13      1.0000 -0.00000  0.10000  0.90000  Biso   1.000  X
  X14      1.0000 0.00000  0.20000  0.00000  Biso   1.000  X
  X15      1.0000 -0.00000  0.20000  0.10000  Biso   1.000  X
  X16      1.0000 -0.00000  0.20000  0.20000  Biso   1.000  X
  X17      1.0000 0.00000  0.20000  0.30000  Biso   1.000  X
  X18      1.0000 -0.00000  0.20000  0.40000  Biso   1.000  X
  X19      1.0000 0.00000  0.20000  0.50000  Biso   1.000  X
  X20      1.0000 0.00000  0.20000  0.60000  Biso   1.000  X
  X21      1.0000 -0.00000  0.20000  0.70000  Biso   1.000  X
  X22      1.0000 -0.00000  0.20000  0.80000  Biso   1.000  X
  X23      1.0000 -0.00000  0.20000  0.90000  Biso   1.000  X
  X24      1.0000 0.00000  0.30000  0.00000  Biso   1.000  X
  X25      1.0000 -0.00000  0.30000  0.10000  Biso   1.000  X
  X26      1.0000 -0.00000  0.30000  0.20000  Biso   1.000  X
  X27      1.0000 0.00000  0.30000  0.30000  Biso   1.000  X
  X28      1.0000 -0.00000  0.30000  0.40000  Biso   1.000  X
  X29      1.0000 0.00000  0.30000  0.50000  Biso   1.000  X
  X30      1.0000 0.00000  0.30000  0.60000  Biso   1.000  X
  X31      1.0000 -0.00000  0.30000  0.70000  Biso   1.000  X
  X32      1.0000 -0.00000  0.30000  0.80000  Biso   1.000  X
  X33      1.0000 -0.00000  0.30000  0.90000  Biso   1.000  X
  X34      1.0000 0.00000  0.40000  0.00000  Biso   1.000  X
  X35      1.0000 -0.00000  0.40000  0.10000  Biso   1.000  X
  X36      1.0000 -0.00000  0.40000  0.20000  Biso   1.000  X
  X37      1.0000 0.00000  0.40000  0.30000  Biso   1.000  X
  X38      1.0000 -0.00000  0.40000  0.40000  Biso   1.000  X
  X39      1.0000 0.00000  0.40000  0.50000  Biso   1.000  X
  X40      1.0000 0.00000  0.40000  0.60000  Biso   1.000  X
  X41      1.0000 -0.00000  0.40000  0.70000  Biso   1.000  X
  X42      1.0000 -0.00000  0.40000  0.80000  Biso   1.000  X
  X43      1.0000 -0.00000  0.40000  0.90000  Biso   1.000  X
  X44      1.0000 -0.00000  0.50000  0.10000  Biso   1.000  X
  X45      1.0000 -0.00000  0.50000  0.40000  Biso   1.000  X
  X46      1.0000 0.10000  0.00000  0.00000  Biso   1.000  X
  X47      1.0000 0.10000  0.00000  0.10000  Biso   1.000  X
  X48      1.0000 0.10000  0.00000  0.20000  Biso   1.000  X
  X49      1.0000 0.10000  0.00000  0.30000  Biso   1.000  X
  X50      1.0000 0.10000  0.00000  0.40000  Biso   1.000  X
  X51      1.0000 0.10000  0.00000  0.50000  Biso   1.000  X
  X52      1.0000 0.10000  0.00000  0.60000  Biso   1.000  X
  X53      1.0000 0.10000  0.00000  0.90000  Biso   1.000  X
  X54      1.0000 0.10000  0.10000  0.00000  Biso   1.000  X
  X55      1.0000 0.10000  0.10000  0.10000  Biso   1.000  X
  X56      1.0000 0.10000  0.10000  0.20000  Biso   1.000  X
  X57      1.0000 0.10000  0.10000  0.30000  Biso   1.000  X
  X58      1.0000 0.10000  0.10000  0.40000  Biso   1.000  X
  X59      1.0000 0.10000  0.10000  0.50000  Biso   1.000  X
  X60      1.0000 0.10000  0.10000  0.60000  Biso   1.000  X
  X61      1.0000 0.10000  0.10000  0.70000  Biso   1.000  X
  X62      1.0000 0.10000  0.10000  0.80000  Biso   1.000  X
  X63      1.0000 0.10000  0.10000  0.90000  Biso   1.000  X
  X64      1.0000 0.10000  0.20000  0.00000  Biso   1.000  X
  X65      1.0000 0.10000  0.20000  0.10000  Biso   1.000  X
  X66      1.0000 0.10000  0.20000  0.20000  Biso   1.000  X
  X67      1.0000 0.10000  0.20000  0.30000  Biso   1.000  X
  X68      1.0000 0.10000  0.20000  0.40000  Biso   1.000  X
  X69      1.0000 0.10000  0.20000  0.50000  Biso   1.000  X
  X70      1.0000 0.10000  0.20000  0.60000  Biso   1.000  X
  X71      1.0000 0.10000  0.20000  0.70000  Biso   1.000  X
  X72      1.0000 0.10000  0.20000  0.80000  Biso   1.000  X
  X73      1.0000 0.10000  0.20000  0.90000  Biso   1.000  X
  X74      1.0000 0.10000  0.30000  0.00000  Biso   1.000  X
  X75      1.0000 0.10000  0.30000  0.10000  Biso   1.000  X
  X76      1.0000 0.10000  0.30000  0.20000  Biso   1.000  X
  X77      1.0000 0.10000  0.30000  0.30000  Biso   1.000  X
  X78      1.0000 0.10000  0.30000  0.40000  Biso   1.000  X
  X79      1.0000 0.10000  0.30000  0.50000  Biso   1.000  X
  X80      1.0000 0.10000  0.30000  0.60000  Biso   1.000  X
  X81      1.0000 0.10000  0.30000  0.70000  Biso   1.000  X
  X82      1.0000 0.10000  0.30000  0.80000  Biso   1.000  X
  X83      1.0000 0.10000  0.30000  0.90000  Biso   1.000  X
  X84      1.0000 0.10000  0.40000  0.00000  Biso   1.000  X
  X85      1.0000 0.10000  0.40000  0.10000  Biso   1.000  X
  X86      1.0000 0.10000  0.40000  0.20000  Biso   1.000  X
  X87      1.0000 0.10000  0.40000  0.30000  Biso   1.000  X
  X88      1.0000 0.10000  0.40000  0.40000  Biso   1.000  X
  X89      1.0000 0.10000  0.40000  0.50000  Biso   1.000  X
  X90      1.0000 0.10000  0.40000  0.60000  Biso   1.000  X
  X91      1.0000 0.10000  0.40000  0.70000  Biso   1.000  X
  X92      1.0000 0.10000  0.40000  0.80000  Biso   1.000  X
  X93      1.0000 0.10000  0.40000  0.90000  Biso   1.000  X
  X94      1.0000 0.10000  0.50000  0.00000  Biso   1.000  X
  X95      1.0000 0.10000  0.50000  0.10000  Biso   1.000  X
  X96      1.0000 0.10000  0.50000  0.20000  Biso   1.000  X
  X97      1.0000 0.10000  0.50000  0.30000  Biso   1.000  X
  X98      1.0000 0.10000  0.50000  0.40000  Biso   1.000  X
  X99      1.0000 0.10000  0.50000  0.50000  Biso   1.000  X
  X100     1.0000 0.10000  0.50000  0.60000  Biso   1.000  X
  X101     1.0000 0.10000  0.50000  0.70000  Biso   1.000  X
  X102     1.0000 0.10000  0.50000  0.80000  Biso   1.000  X
  X103     1.0000 0.10000  0.50000  0.90000  Biso   1.000  X
  X104     1.0000 0.10000  0.60000  0.00000  Biso   1.000  X
  X105     1.0000 0.10000  0.60000  0.10000  Biso   1.000  X
  X106     1.0000 0.10000  0.60000  0.20000  Biso   1.000  X
  X107     1.0000 0.10000  0.60000  0.30000  Biso   1.000  X
  X108     1.0000 0.10000  0.60000  0.40000  Biso   1.000  X
  X109     1.0000 0.10000  0.60000  0.50000  Biso   1.000  X
  X110     1.0000 0.10000  0.60000  0.60000  Biso   1.000  X
  X111     1.0000 0.10000  0.60000  0.70000  Biso   1.000  X
  X112     1.0000 0.10000  0.60000  0.80000  Biso   1.000  X
  X113     1.0000 0.10000  0.60000  0.90000  Biso   1.000  X
  X114     1.0000 0.10000  0.70000  0.00000  Biso   1.000  X
  X115     1.0000 0.10000  0.70000  0.10000  Biso   1.000  X
  X116     1.0000 0.10000  0.70000  0.20000  Biso   1.000  X
  X117     1.0000 0.10000  0.70000  0.30000  Biso   1.000  X
  X118     1.0000 0.10000  0.70000  0.40000  Biso   1.000  X
  X119     1.0000 0.10000  0.70000  0.50000  Biso   1.000  X
  X120     1.0000 0.10000  0.70000  0.60000  Biso   1.000  X
  X121     1.0000 0.10000  0.70000  0.70000  Biso   1.000  X
  X122     1.0000 0.10000  0.70000  0.80000  Biso   1.000  X
  X123     1.0000 0.10000  0.70000  0.90000  Biso   1.000  X
  X124     1.0000 0.10000  0.80000  0.00000  Biso   1.000  X
  X125     1.0000 0.10000  0.80000  0.10000  Biso   1.000  X
  X126     1.0000 0.10000  0.80000  0.20000  Biso   1.000  X
  X127     1.0000 0.10000  0.80000  0.30000  Biso   1.000  X
  X128     1.0000 0.10000  0.80000  0.40000  Biso   1.000  X
  X129     1.0000 0.10000  0.80000  0.50000  Biso   1.000  X
  X130     1.0000 0.10000  0.80000  0.60000  Biso   1.000  X
  X131     1.0000 0.10000  0.80000  0.70000  Biso   1.000  X
  X132     1.0000 0.10000  0.80000  0.80000  Biso   1.000  X
  X133     1.0000 0.10000  0.80000  0.90000  Biso   1.000  X
  X134     1.0000 0.10000  0.90000  0.00000  Biso   1.000  X
  X135     1.0000 0.10000  0.90000  0.10000  Biso   1.000  X
  X136     1.0000 0.10000  0.90000  0.20000  Biso   1.000  X
  X137     1.0000 0.10000  0.90000  0.30000  Biso   1.000  X
  X138     1.0000 0.10000  0.90000  0.40000  Biso   1.000  X
  X139     1.0000 0.10000  0.90000  0.50000  Biso   1.000  X
  X140     1.0000 0.10000  0.90000  0.60000  Biso   1.000  X
  X141     1.0000 0.10000  0.90000  0.70000  Biso   1.000  X
  X142     1.0000 0.10000  0.90000  0.80000  Biso   1.000  X
  X143     1.0000 0.10000  0.90000  0.90000  Biso   1.000  X
  X144     1.0000 0.20000  0.00000  0.00000  Biso   1.000  X
  X145     1.0000 0.20000  0.00000  0.10000  Biso   1.000  X
  X146     1.0000 0.20000  0.00000  0.20000  Biso   1.000  X
  X147     1.0000 0.20000  0.00000  0.30000  Biso   1.000  X
  X148     1.0000 0.20000  0.00000  0.40000  Biso   1.000  X
  X149     1.0000 0.20000  0.00000  0.50000  Biso   1.000  X
  X150     1.0000 0.20000  0.00000  0.60000  Biso   1.000  X
  X151     1.0000 0.20000  0.00000  0.70000  Biso   1.000  X
  X152     1.0000 0.20000  0.00000  0.80000  Biso   1.000  X
  X153     1.0000 0.20000  0.00000  0.90000  Biso   1.000  X
  X154     1.0000 0.20000  0.10000  0.00000  Biso   1.000  X
  X155     1.0000 0.20000  0.10000  0.10000  Biso   1.000  X
  X156     1.0000 0.20000  0.10000  0.20000  Biso   1.000  X
  X157     1.0000 0.20000  0.10000  0.30000  Biso   1.000  X
  X158     1.0000 0.20000  0.10000  0.40000  Biso   1.000  X
  X159     1.0000 0.20000  0.10000  0.50000  Biso   1.000  X
  X160     1.0000 0.20000  0.10000  0.60000  Biso   1.000  X
  X161     1.0000 0.20000  0.10000  0.70000  Biso   1.000  X
  X162     1.0000 0.20000  0.10000  0.80000  Biso   1.000  X
  X163     1.0000 0.20000  0.10000  0.90000  Biso   1.000  X
  X164     1.0000 0.20000  0.20000  0.00000  Biso   1.000  X
  X165     1.0000 0.20000  0.20000  0.10000  Biso   1.000  X
  X166     1.0000 0.20000  0.20000  0.20000  Biso   1.000  X
  X167     1.0000 0.20000  0.20000  0.30000  Biso   1.000  X
  X168     1.0000 0.20000  0.20000  0.40000  Biso   1.000  X
  X169     1.0000 0.20000  0.20000  0.60000  Biso   1.000  X
  X170     1.0000 0.20000  0.20000  0.70000  Biso   1.000  X
  X171     1.0000 0.20000  0.20000  0.80000  Biso   1.000  X
  X172     1.0000 0.20000  0.20000  0.90000  Biso   1.000  X
  X173     1.0000 0.20000  0.30000  0.10000  Biso   1.000  X
  X174     1.0000 0.20000  0.30000  0.20000  Biso   1.000  X
  X175     1.0000 0.20000  0.30000  0.30000  Biso   1.000  X
  X176     1.0000 0.20000  0.30000  0.40000  Biso   1.000  X
  X177     1.0000 0.20000  0.30000  0.60000  Biso   1.000  X
  X178     1.0000 0.20000  0.30000  0.70000  Biso   1.000  X
  X179     1.0000 0.20000  0.30000  0.80000  Biso   1.000  X
  X180     1.0000 0.20000  0.30000  0.90000  Biso   1.000  X
  X181     1.0000 0.20000  0.40000  0.00000  Biso   1.000  X
  X182     1.0000 0.20000  0.40000  0.10000  Biso   1.000  X
  X183     1.0000 0.20000  0.40000  0.20000  Biso   1.000  X
  X184     1.0000 0.20000  0.40000  0.30000  Biso   1.000  X
  X185     1.0000 0.20000  0.40000  0.40000  Biso   1.000  X
  X186     1.0000 0.20000  0.40000  0.50000  Biso   1.000  X
  X187     1.0000 0.20000  0.40000  0.60000  Biso   1.000  X
  X188     1.0000 0.20000  0.40000  0.70000  Biso   1.000  X
  X189     1.0000 0.20000  0.40000  0.80000  Biso   1.000  X
  X190     1.0000 0.20000  0.40000  0.90000  Biso   1.000  X
  X191     1.0000 0.20000  0.50000  0.00000  Biso   1.000  X
  X192     1.0000 0.20000  0.50000  0.10000  Biso   1.000  X
  X193     1.0000 0.20000  0.50000  0.20000  Biso   1.000  X
  X194     1.0000 0.20000  0.50000  0.30000  Biso   1.000  X
  X195     1.0000 0.20000  0.50000  0.40000  Biso   1.000  X
  X196     1.0000 0.20000  0.50000  0.50000  Biso   1.000  X
  X197     1.0000 0.20000  0.50000  0.60000  Biso   1.000  X
  X198     1.0000 0.20000  0.50000  0.70000  Biso   1.000  X
  X199     1.0000 0.20000  0.50000  0.80000  Biso   1.000  X
  X200     1.0000 0.20000  0.50000  0.90000  Biso   1.000  X
  X201     1.0000 0.20000  0.60000  0.00000  Biso   1.000  X
  X202     1.0000 0.20000  0.60000  0.10000  Biso   1.000  X
  X203     1.0000 0.20000  0.60000  0.20000  Biso   1.000  X
  X204     1.0000 0.20000  0.60000  0.30000  Biso   1.000  X
  X205     1.0000 0.20000  0.60000  0.40000  Biso   1.000  X
  X206     1.0000 0.20000  0.60000  0.50000  Biso   1.000  X
  X207     1.0000 0.20000  0.60000  0.60000  Biso   1.000  X
  X208     1.0000 0.20000  0.60000  0.70000  Biso   1.000  X
  X209     1.0000 0.20000  0.60000  0.80000  Biso   1.000  X
  X210     1.0000 0.20000  0.60000  0.90000  Biso   1.000  X
  X211     1.0000 0.20000  0.70000  0.00000  Biso   1.000  X
  X212     1.0000 0.20000  0.70000  0.10000  Biso   1.000  X
  X213     1.0000 0.20000  0.70000  0.20000  Biso   1.000  X
  X214     1.0000 0.20000  0.70000  0.30000  Biso   1.000  X
  X215     1.0000 0.20000  0.70000  0.40000  Biso   1.000  X
  X216     1.0000 0.20000  0.70000  0.50000  Biso   1.000  X
  X217     1.0000 0.20000  0.70000  0.60000  Biso   1.000  X
  X218     1.0000 0.20000  0.70000  0.70000  Biso   1.000  X
  X219     1.0000 0.20000  0.70000  0.80000  Biso   1.000  X
  X220     1.0000 0.20000  0.70000  0.90000  Biso   1.000  X
  X221     1.0000 0.20000  0.80000  0.00000  Biso   1.000  X
  X222     1.0000 0.20000  0.80000  0.10000  Biso   1.000  X
  X223     1.0000 0.20000  0.80000  0.20000  Biso   1.000  X
  X224     1.0000 0.20000  0.80000  0.30000  Biso   1.000  X
  X225     1.0000 0.20000  0.80000  0.40000  Biso   1.000  X
  X226     1.0000 0.20000  0.80000  0.60000  Biso   1.000  X
  X227     1.0000 0.20000  0.80000  0.70000  Biso   1.000  X
  X228     1.0000 0.20000  0.80000  0.80000  Biso   1.000  X
  X229     1.0000 0.20000  0.80000  0.90000  Biso   1.000  X
  X230     1.0000 0.20000  0.90000  0.00000  Biso   1.000  X
  X231     1.0000 0.20000  0.90000  0.10000  Biso   1.000  X
  X232     1.0000 0.20000  0.90000  0.20000  Biso   1.000  X
  X233     1.0000 0.20000  0.90000  0.30000  Biso   1.000  X
  X234     1.0000 0.20000  0.90000  0.40000  Biso   1.000  X
  X235     1.0000 0.20000  0.90000  0.50000  Biso   1.000  X
  X236     1.0000 0.20000  0.90000  0.60000  Biso   1.000  X
  X237     1.0000 0.20000  0.90000  0.70000  Biso   1.000  X
  X238     1.0000 0.20000  0.90000  0.80000  Biso   1.000  X
  X239     1.0000 0.20000  0.90000  0.90000  Biso   1.000  X
