TITL collres_test_2 1.0 10.0    2.0 -1  1   P1 n - 1
REM 
REM Just a random header line 
REM
CELL 1.54180    6   8   10  90  90  90
LATT -1
SFAC C N O
C   1   0   0   0       1.0
C   1   0.2 0.2 0.2     1.0
N   2   0.4 0.4 0.5     1.0
N   2   0.4 0.8 0.5     1.0
O   3   0.9 0.9 0.5     1.0
O   3   1.1 0.5 1.1     1.0
END